    3
         0      -76.0179662601  -2.040203E-14   4.042888E-11   1.792344E-01
 O                0.00000000     0.00000000     0.11970000       0.00000000    -0.00118021     0.00220738
 H                0.00000000     0.76150000    -0.47900000       0.00000000     0.01672826    -0.02487957
 H                0.00000000    -0.76150000    -0.47900000      -0.00000000     0.00200251    -0.01015322
    3
         1      -76.0180054305   2.581621E-15  -1.133155E-03   1.787662E-01
 O                0.00000000    -0.00001432     0.11972677       0.00000000    -0.00117005     0.00218469
 H               -0.00000000     0.76170650    -0.47930175      -0.00000000     0.01715466    -0.02463615
 H               -0.00000000    -0.76147919    -0.47912304      -0.00000000     0.00141493    -0.01003645
    3
         2      -76.0180350948   1.038032E-15  -2.215149E-03   1.782832E-01
 O                0.00000000    -0.00002840     0.11975303       0.00000000    -0.00116182     0.00216558
 H               -0.00000000     0.76191637    -0.47959795      -0.00000000     0.01760965    -0.02443327
 H               -0.00000000    -0.76146566    -0.47924360      -0.00000000     0.00082933    -0.00993605
    3
         3      -76.0180967049  -9.099782E-16  -3.277079E-03   1.777936E-01
 O                0.00000000    -0.00004223     0.11977879       0.00000000    -0.00114467     0.00212984
 H               -0.00000000     0.76212954    -0.47988871      -0.00000000     0.01792607    -0.02404285
 H               -0.00000000    -0.76145927    -0.47936173      -0.00000000     0.00024064    -0.00975934
    3
         4      -76.0180840780   1.538935E-15  -4.338101E-03   1.772908E-01
 O                0.00000000    -0.00005604     0.11980445       0.00000000    -0.00114787     0.00213202
 H               -0.00000000     0.76234918    -0.48017846      -0.00000000     0.01855507    -0.02408040
 H               -0.00000000    -0.76145985    -0.47947923      -0.00000000    -0.00033750    -0.00975639
    3
         5      -76.0180280635  -8.614407E-16  -5.412130E-03   1.767681E-01
 O                0.00000000    -0.00006999     0.11983034       0.00000000    -0.00116249     0.00215537
 H               -0.00000000     0.76257815    -0.48047092      -0.00000000     0.01937089    -0.02435728
 H               -0.00000000    -0.76146743    -0.47959762      -0.00000000    -0.00092127    -0.00985017
    3
         6      -76.0180751887   1.775528E-15  -6.490239E-03   1.762295E-01
 O                0.00000000    -0.00008397     0.11985625       0.00000000    -0.00115004     0.00212852
 H               -0.00000000     0.76281472    -0.48076382      -0.00000000     0.01973452    -0.02406685
 H               -0.00000000    -0.76148199    -0.47971596      -0.00000000    -0.00148255    -0.00971438
    3
         7      -76.0180268702   2.043363E-15  -7.560548E-03   1.756807E-01
 O                0.00000000    -0.00009785     0.11988190       0.00000000    -0.00116191     0.00214664
 H               -0.00000000     0.76305626    -0.48105398      -0.00000000     0.02051956    -0.02428524
 H               -0.00000000    -0.76150334    -0.47983296      -0.00000000    -0.00207914    -0.00978366
    3
         8      -76.0180373424   2.848575E-15  -8.653819E-03   1.751072E-01
 O                0.00000000    -0.00011199     0.11990800       0.00000000    -0.00115918     0.00213779
 H               -0.00000000     0.76330943    -0.48134933      -0.00000000     0.02103972    -0.02419849
 H               -0.00000000    -0.76153212    -0.47995184      -0.00000000    -0.00264274    -0.00973002
    3
         9      -76.0181247392  -5.346876E-16  -9.725567E-03   1.745304E-01
 O                0.00000000    -0.00012584     0.11993354       0.00000000    -0.00113722     0.00209348
 H               -0.00000000     0.76356441    -0.48163843      -0.00000000     0.02120978    -0.02371043
 H               -0.00000000    -0.76156717    -0.48006797      -0.00000000    -0.00316130    -0.00951484
    3
        10      -76.0181879936   1.080236E-15  -1.077969E-02   1.739498E-01
 O                0.00000000    -0.00013945     0.11995856       0.00000000    -0.00112121     0.00206016
 H               -0.00000000     0.76382169    -0.48192198      -0.00000000     0.02148158    -0.02334673
 H               -0.00000000    -0.76160847    -0.48018164      -0.00000000    -0.00368718    -0.00934965
    3
        11      -76.0182607841   3.674461E-15  -1.181385E-02   1.733669E-01
 O                0.00000000    -0.00015278     0.11998304      -0.00000000    -0.00110281     0.00202245
 H               -0.00000000     0.76408057    -0.48219940       0.00000000     0.02170137    -0.02293345
 H               -0.00000000    -0.76165577    -0.48029262       0.00000000    -0.00419895    -0.00916458
    3
        12      -76.0182787226  -2.112738E-15  -1.284520E-02   1.727727E-01
 O                0.00000000    -0.00016605     0.12000734      -0.00000000    -0.00109794     0.00200960
 H               -0.00000000     0.76434510    -0.48247511       0.00000000     0.02217769    -0.02280186
 H               -0.00000000    -0.76170974    -0.48040268       0.00000000    -0.00475254    -0.00909217
    3
        13      -76.0181683999  -2.811463E-15  -1.389568E-02   1.721547E-01
 O                0.00000000    -0.00017953     0.12003199      -0.00000000    -0.00112322     0.00205188
 H               -0.00000000     0.76462085    -0.48275489       0.00000000     0.02326387    -0.02329605
 H               -0.00000000    -0.76177155    -0.48051412      -0.00000000    -0.00543756    -0.00926898
    3
        14      -76.0181769856   1.832955E-15  -1.496226E-02   1.715138E-01
 O                0.00000000    -0.00019320     0.12005694      -0.00000000    -0.00112094     0.00204375
 H               -0.00000000     0.76490739    -0.48303818       0.00000000     0.02378275    -0.02321820
 H               -0.00000000    -0.76184117    -0.48062671      -0.00000000    -0.00599269    -0.00921779
    3
        15      -76.0180648116   1.419831E-15  -1.603783E-02   1.708544E-01
 O                0.00000000    -0.00020696     0.12008199      -0.00000000    -0.00114487     0.00208332
 H               -0.00000000     0.76520270    -0.48332293       0.00000000     0.02486469    -0.02368275
 H               -0.00000000    -0.76191816    -0.48073963      -0.00000000    -0.00669482    -0.00938140
    3
        16      -76.0180544446  -1.079415E-15  -1.711574E-02   1.701805E-01
 O                0.00000000    -0.00022072     0.12010701      -0.00000000    -0.00114624     0.00208172
 H               -0.00000000     0.76550505    -0.48360743       0.00000000     0.02546871    -0.02367970
 H               -0.00000000    -0.76200209    -0.48085221      -0.00000000    -0.00727706    -0.00935903
    3
        17      -76.0181120213  -1.525181E-15  -1.819270E-02   1.694944E-01
 O                0.00000000    -0.00023444     0.12013191      -0.00000000    -0.00113359     0.00205464
 H               -0.00000000     0.76581345    -0.48389077       0.00000000     0.02575672    -0.02338691
 H               -0.00000000    -0.76209267    -0.48096406      -0.00000000    -0.00776583    -0.00922199
    3
        18      -76.0181146637  -1.069849E-15  -1.927091E-02   1.687948E-01
 O                0.00000000    -0.00024815     0.12015674      -0.00000000    -0.00113237     0.00204827
 H               -0.00000000     0.76612843    -0.48417346       0.00000000     0.02629770    -0.02333002
 H               -0.00000000    -0.76219004    -0.48107540      -0.00000000    -0.00832614    -0.00917789
    3
        19      -76.0181585113   1.619800E-15  -2.035107E-02   1.680814E-01
 O                0.00000000    -0.00026186     0.12018151       0.00000000    -0.00112308     0.00202730
 H               -0.00000000     0.76645020    -0.48445566       0.00000000     0.02664585    -0.02310685
 H               -0.00000000    -0.76229427    -0.48118629      -0.00000000    -0.00882169    -0.00906824
    3
        20      -76.0182109211  -1.367571E-15  -2.140481E-02   1.673722E-01
 O                0.00000000    -0.00027521     0.12020559       0.00000000    -0.00111175     0.00200254
 H               -0.00000000     0.76677045    -0.48473020      -0.00000000     0.02694944    -0.02284089
 H               -0.00000000    -0.76240259    -0.48129390      -0.00000000    -0.00930523    -0.00894127
    3
        21      -76.0181879269  -2.039955E-15  -2.246378E-02   1.666480E-01
 O                0.00000000    -0.00028859     0.12022966       0.00000000    -0.00111514     0.00200430
 H               -0.00000000     0.76709820    -0.48500487       0.00000000     0.02760457    -0.02287745
 H               -0.00000000    -0.76251801    -0.48140128      -0.00000000    -0.00990656    -0.00893258
    3
        22      -76.0182370330   3.899866E-16  -2.352765E-02   1.659082E-01
 O                0.00000000    -0.00030200     0.12025374       0.00000000    -0.00110512     0.00198193
 H               -0.00000000     0.76743357    -0.48527977       0.00000000     0.02792273    -0.02263877
 H               -0.00000000    -0.76264057    -0.48150848      -0.00000000    -0.01038375    -0.00881624
    3
        23      -76.0182552115   3.797747E-16  -2.458070E-02   1.651633E-01
 O                0.00000000    -0.00031525     0.12027747       0.00000000    -0.00110072     0.00196959
 H               -0.00000000     0.76777173    -0.48555095      -0.00000000     0.02838221    -0.02251494
 H               -0.00000000    -0.76276848    -0.48161394      -0.00000000    -0.01091301    -0.00874426
    3
        24      -76.0184067947  -3.191856E-15  -2.562908E-02   1.644098E-01
 O                0.00000000    -0.00032841     0.12030098       0.00000000    -0.00107249     0.00191464
 H               -0.00000000     0.76811437    -0.48581983      -0.00000000     0.02821391    -0.02190399
 H               -0.00000000    -0.76290234    -0.48171822      -0.00000000    -0.01119271    -0.00848325
    3
        25      -76.0183521412  -5.561295E-15  -2.667671E-02   1.636451E-01
 O                0.00000000    -0.00034152     0.12032436       0.00000000    -0.00108142     0.00192603
 H               -0.00000000     0.76846275    -0.48608742      -0.00000000     0.02901454    -0.02205190
 H               -0.00000000    -0.76304261    -0.48182171      -0.00000000    -0.01185168    -0.00851608
    3
        26      -76.0182606431   1.135834E-15  -2.774448E-02   1.628543E-01
 O                0.00000000    -0.00035484     0.12034806       0.00000000    -0.00109638     0.00194808
 H               -0.00000000     0.76882363    -0.48635888      -0.00000000     0.02998043    -0.02232233
 H               -0.00000000    -0.76319205    -0.48192640      -0.00000000    -0.01258004    -0.00859566
    3
        27      -76.0181284025   1.694943E-15  -2.881485E-02   1.620494E-01
 O                0.00000000    -0.00036817     0.12037171       0.00000000    -0.00111686     0.00197971
 H               -0.00000000     0.76919146    -0.48663000      -0.00000000     0.03111493    -0.02270341
 H               -0.00000000    -0.76334839    -0.48203064      -0.00000000    -0.01338949    -0.00871661
    3
        28      -76.0181471576  -2.006344E-15  -2.990304E-02   1.612198E-01
 O                0.00000000    -0.00038167     0.12039563       0.00000000    -0.00111292     0.00196797
 H               -0.00000000     0.76957119    -0.48690436      -0.00000000     0.03156951    -0.02258740
 H               -0.00000000    -0.76351375    -0.48213582      -0.00000000    -0.01390668    -0.00864622
    3
        29      -76.0182725973  -4.147413E-15  -3.097673E-02   1.603889E-01
 O                0.00000000    -0.00039498     0.12041912       0.00000000    -0.00109226     0.00192662
 H               -0.00000000     0.76995196    -0.48717412      -0.00000000     0.03154567    -0.02213181
 H               -0.00000000    -0.76368339    -0.48223893      -0.00000000    -0.01421077    -0.00844555
    3
        30      -76.0181311580  -1.201499E-15  -3.204953E-02   1.595476E-01
 O                0.00000000    -0.00040823     0.12044246       0.00000000    -0.00111241     0.00195717
 H               -0.00000000     0.77033808    -0.48744239      -0.00000000     0.03270238    -0.02250259
 H               -0.00000000    -0.76385922    -0.48234114      -0.00000000    -0.01504761    -0.00855964
    3
        31      -76.0180753118   2.115485E-15  -3.314579E-02   1.586776E-01
 O                0.00000000    -0.00042172     0.12046617       0.00000000    -0.00111943     0.00196448
 H               -0.00000000     0.77073817    -0.48771511      -0.00000000     0.03347616    -0.02260673
 H               -0.00000000    -0.76404516    -0.48244471      -0.00000000    -0.01571007    -0.00857163
    3
        32      -76.0181805369  -2.867079E-15  -3.423536E-02   1.578008E-01
 O                0.00000000    -0.00043510     0.12048963       0.00000000    -0.00110314     0.00193082
 H               -0.00000000     0.77114178    -0.48798514      -0.00000000     0.03355277    -0.02223968
 H               -0.00000000    -0.76423639    -0.48254693      -0.00000000    -0.01604519    -0.00840446
    3
        33      -76.0182055300   1.609997E-15  -3.533493E-02   1.569055E-01
 O                0.00000000    -0.00044856     0.12051315       0.00000000    -0.00109875     0.00191803
 H               -0.00000000     0.77155460    -0.48825626      -0.00000000     0.03397723    -0.02211285
 H               -0.00000000    -0.76443558    -0.48264922      -0.00000000    -0.01653930    -0.00832823
    3
        34      -76.0181675004   2.257777E-15  -3.642545E-02   1.560062E-01
 O                0.00000000    -0.00046188     0.12053637       0.00000000    -0.00110273     0.00191970
 H               -0.00000000     0.77196978    -0.48852401      -0.00000000     0.03466610    -0.02215341
 H               -0.00000000    -0.76463944    -0.48274988      -0.00000000    -0.01716500    -0.00831419
    3
        35      -76.0182459211   4.948330E-16  -3.751302E-02   1.550987E-01
 O                0.00000000    -0.00047512     0.12055938       0.00000000    -0.00109095     0.00189385
 H               -0.00000000     0.77238934    -0.48878971      -0.00000000     0.03485861    -0.02187676
 H               -0.00000000    -0.76484891    -0.48284942      -0.00000000    -0.01754442    -0.00818059
    3
        36      -76.0183408160  -1.272086E-15  -3.859773E-02   1.541831E-01
 O                0.00000000    -0.00048828     0.12058220       0.00000000    -0.00107729     0.00186473
 H               -0.00000000     0.77281331    -0.48905339      -0.00000000     0.03498083    -0.02156242
 H               -0.00000000    -0.76506399    -0.48294784      -0.00000000    -0.01788343    -0.00803287
    3
        37      -76.0184489588   2.771009E-15  -3.966030E-02   1.532750E-01
 O                0.00000000    -0.00050114     0.12060442       0.00000000    -0.00106178     0.00183232
 H               -0.00000000     0.77323428    -0.48931053      -0.00000000     0.03504029    -0.02121036
 H               -0.00000000    -0.76528087    -0.48304345      -0.00000000    -0.01818916    -0.00787063
    3
        38      -76.0185021251   5.816976E-16  -4.071875E-02   1.523606E-01
 O                0.00000000    -0.00051390     0.12062641       0.00000000    -0.00105359     0.00181256
 H               -0.00000000     0.77365893    -0.48956526      -0.00000000     0.03533318    -0.02100472
 H               -0.00000000    -0.76550294    -0.48313778      -0.00000000    -0.01861192    -0.00776261
    3
        39      -76.0185024704  -2.088143E-15  -4.177525E-02   1.514377E-01
 O                0.00000000    -0.00052660     0.12064823       0.00000000    -0.00105213     0.00180428
 H               -0.00000000     0.77408819    -0.48981816      -0.00000000     0.03584898    -0.02093249
 H               -0.00000000    -0.76573067    -0.48323105      -0.00000000    -0.01915094    -0.00770343
    3
        40      -76.0184129162   4.393018E-15  -4.284077E-02   1.504970E-01
 O                0.00000000    -0.00053936     0.12067008       0.00000000    -0.00106159     0.00181461
 H               -0.00000000     0.77452642    -0.49007179      -0.00000000     0.03673825    -0.02107675
 H               -0.00000000    -0.76596637    -0.48332419      -0.00000000    -0.01989004    -0.00772323
    3
        41      -76.0185105331  -2.770754E-15  -4.392115E-02   1.495333E-01
 O                0.00000000    -0.00055226     0.12069208       0.00000000    -0.00104892     0.00178709
 H               -0.00000000     0.77497607    -0.49032754      -0.00000000     0.03685386    -0.02078142
 H               -0.00000000    -0.76621137    -0.48341770      -0.00000000    -0.02020675    -0.00758176
    3
        42      -76.0184578533   4.837775E-16  -4.498812E-02   1.485706E-01
 O                0.00000000    -0.00056496     0.12071368       0.00000000    -0.00105358     0.00178893
 H               -0.00000000     0.77542572    -0.49057890      -0.00000000     0.03758218    -0.02082820
 H               -0.00000000    -0.76645945    -0.48350920      -0.00000000    -0.02086120    -0.00756421
    3
        43      -76.0185957114   3.609564E-15  -4.605023E-02   1.476028E-01
 O                0.00000000    -0.00057756     0.12073504       0.00000000    -0.00103642     0.00175365
 H               -0.00000000     0.77587851    -0.49082768      -0.00000000     0.03752994    -0.02044310
 H               -0.00000000    -0.76671230    -0.48359934      -0.00000000    -0.02108131    -0.00738930
    3
        44      -76.0186408457  -6.740664E-16  -4.711737E-02   1.466209E-01
 O                0.00000000    -0.00059017     0.12075634       0.00000000    -0.00103015     0.00173683
 H               -0.00000000     0.77633858    -0.49107615      -0.00000000     0.03785882    -0.02027321
 H               -0.00000000    -0.76697222    -0.48368893      -0.00000000    -0.02150960    -0.00729235
    3
        45      -76.0187012310  -2.636807E-16  -4.817360E-02   1.456390E-01
 O                0.00000000    -0.00060261     0.12077728       0.00000000    -0.00102212     0.00171693
 H               -0.00000000     0.77679930    -0.49132075      -0.00000000     0.03812218    -0.02006771
 H               -0.00000000    -0.76723545    -0.48377670      -0.00000000    -0.02190043    -0.00718193
    3
        46      -76.0187917828   2.715308E-15  -4.921651E-02   1.446597E-01
 O                0.00000000    -0.00061486     0.12079781       0.00000000    -0.00101076     0.00169133
 H               -0.00000000     0.77725941    -0.49156087      -0.00000000     0.03825947    -0.01979612
 H               -0.00000000    -0.76750121    -0.48386241      -0.00000000    -0.02221804    -0.00704730
    3
        47      -76.0188049115   4.881751E-15  -5.025956E-02   1.436714E-01
 O                0.00000000    -0.00062705     0.12081818       0.00000000    -0.00100784     0.00167982
 H               -0.00000000     0.77772458    -0.49179951      -0.00000000     0.03871042    -0.01968959
 H               -0.00000000    -0.76777277    -0.48394713      -0.00000000    -0.02271525    -0.00697112
    3
        48      -76.0189272434   5.819181E-15  -5.129703E-02   1.426787E-01
 O                0.00000000    -0.00063915     0.12083830       0.00000000    -0.00099358     0.00164933
 H               -0.00000000     0.77819244    -0.49203545      -0.00000000     0.03872062    -0.01936092
 H               -0.00000000    -0.76804872    -0.48403043      -0.00000000    -0.02295182    -0.00681591
    3
        49      -76.0188942036  -2.365748E-15  -5.233147E-02   1.416798E-01
 O                0.00000000    -0.00065116     0.12085820       0.00000000    -0.00099537     0.00164540
 H               -0.00000000     0.77866398    -0.49226922      -0.00000000     0.03935278    -0.01934440
 H               -0.00000000    -0.76832961    -0.48411249      -0.00000000    -0.02355561    -0.00677011
    3
        50      -76.0189406716   2.797796E-15  -5.336940E-02   1.406686E-01
 O                0.00000000    -0.00066317     0.12087801       0.00000000    -0.00098920     0.00162822
 H               -0.00000000     0.77914210    -0.49250227      -0.00000000     0.03966798    -0.01917257
 H               -0.00000000    -0.76861716    -0.48419381      -0.00000000    -0.02396869    -0.00666938
